PyDSS/api/src/tmp/41e17deb-dd30-4fdc-9265-c791677144a4_distribution_federate/Lines.dss
New Line.l(r:p1rdt2205lv-p1rlv4346) Units=km Length=0.001 bus1=p1rdt2205lv.1.2 bus2=p1rlv4346.1.2 switch=n enabled=y phases=2 Linecode=1P_OH_AL_4_Periwinkle_2

New Line.l(r:p1rdm4388-p1rlv4347) Units=km Length=0.140777 bus1=p1rdm4388.1.2 bus2=p1rlv4347.1.2 switch=n enabled=y phases=2 Linecode=1P_OH_AL_4/0_Zuzara_2

New Line.l(r:p1rdm4388-p1rdt2206lv) Units=km Length=0.0239713 bus1=p1rdt2206lv.1.2 bus2=p1rdm4388.1.2 switch=n enabled=y phases=2 Linecode=1P_OH_AL_2/0_Rucina_2

New Line.l(r:p1rdm4389-p1rlv8541) Units=km Length=0.0229196 bus1=p1rdm4389.1.2 bus2=p1rlv8541.1.2 switch=n enabled=y phases=2 Linecode=1P_OH_AL_2/0_Rucina_2

New Line.l(r:p1rdm4389-p1rdt2206lv) Units=km Length=0.0134497 bus1=p1rdt2206lv.1.2 bus2=p1rdm4389.1.2 switch=n enabled=y phases=2 Linecode=1P_OH_AL_2/0_Rucina_2

New Line.l(r:p1rdm4392-p1rlv8538) Units=km Length=0.0130607 bus1=p1rdm4392.1.2 bus2=p1rlv8538.1.2 switch=n enabled=y phases=2 Linecode=1P_OH_AL_2/0_Rucina_2

New Line.l(r:p1rdm4391-p1rlv8537) Units=km Length=0.0177844 bus1=p1rdm4391.1.2 bus2=p1rlv8537.1.2 switch=n enabled=y phases=2 Linecode=1P_OH_AL_2/0_Rucina_2

New Line.l(r:p1rdm4391-p1rdm4392) Units=km Length=0.0142263 bus1=p1rdm4392.1.2 bus2=p1rdm4391.1.2 switch=n enabled=y phases=2 Linecode=1P_OH_AL_2/0_Rucina_2

New Line.l(r:p1rdm4392-p1rdt2207lv) Units=km Length=0.034886200000000006 bus1=p1rdt2207lv.1.2 bus2=p1rdm4392.1.2 switch=n enabled=y phases=2 Linecode=1P_OH_AL_4/0_Zuzara_2

New Line.l(r:p1rdm4393-p1rlv8540) Units=km Length=0.0236267 bus1=p1rdm4393.1.2 bus2=p1rlv8540.1.2 switch=n enabled=y phases=2 Linecode=1P_OH_AL_2/0_Rucina_2

New Line.l(r:p1rdm4390-p1rlv4348) Units=km Length=0.0104583 bus1=p1rdm4390.1.2 bus2=p1rlv4348.1.2 switch=n enabled=y phases=2 Linecode=1P_OH_AL_2/0_Rucina_2

New Line.l(r:p1rdm4390-p1rdm4393) Units=km Length=0.0372401 bus1=p1rdm4393.1.2 bus2=p1rdm4390.1.2 switch=n enabled=y phases=2 Linecode=1P_OH_AL_4/0_Zuzara_2

New Line.l(r:p1rdm4393-p1rdt2207lv) Units=km Length=0.0208241 bus1=p1rdt2207lv.1.2 bus2=p1rdm4393.1.2 switch=n enabled=y phases=2 Linecode=1P_OH_AL_2/0_Rucina_2

New Line.l(r:p1rdt2208lv-p1rlv4354) Units=km Length=0.00678965 bus1=p1rdt2208lv.1.2 bus2=p1rlv4354.1.2 switch=n enabled=y phases=2 Linecode=1P_OH_AL_2/0_Rucina_2

New Line.l(r:p1rdm4394-p1rlv4349) Units=km Length=0.0288011 bus1=p1rdm4394.1.2 bus2=p1rlv4349.1.2 switch=n enabled=y phases=2 Linecode=1P_OH_AL_4/0_Zuzara_2

New Line.l(r:p1rdm4394-p1rdt2208lv) Units=km Length=0.0105801 bus1=p1rdt2208lv.1.2 bus2=p1rdm4394.1.2 switch=n enabled=y phases=2 Linecode=1P_OH_AL_2/0_Rucina_2

New Line.l(r:p1rdm4395-p1rlv4353) Units=km Length=0.0237556 bus1=p1rdm4395.1.2 bus2=p1rlv4353.1.2 switch=n enabled=y phases=2 Linecode=1P_OH_AL_2/0_Rucina_2

New Line.l(r:p1rdm4395-p1rdt2208lv) Units=km Length=0.0412819 bus1=p1rdt2208lv.1.2 bus2=p1rdm4395.1.2 switch=n enabled=y phases=2 Linecode=1P_OH_AL_4/0_Zuzara_2

New Line.l(r:p1rdt2209lv-p1rlv4350) Units=km Length=0.0143955 bus1=p1rdt2209lv.1.2 bus2=p1rlv4350.1.2 switch=n enabled=y phases=2 Linecode=1P_OH_AL_2/0_Rucina_2

New Line.l(r:p1rdm4398-p1rlv4356) Units=km Length=0.017394800000000002 bus1=p1rdm4398.1.2 bus2=p1rlv4356.1.2 switch=n enabled=y phases=2 Linecode=1P_OH_AL_2/0_Rucina_2

New Line.l(r:p1rdm4398-p1rdt2209lv) Units=km Length=0.01609 bus1=p1rdt2209lv.1.2 bus2=p1rdm4398.1.2 switch=n enabled=y phases=2 Linecode=1P_OH_AL_2/0_Rucina_2

New Line.l(r:p1rdm4399-p1rlv9591) Units=km Length=0.0192122 bus1=p1rdm4399.1.2 bus2=p1rlv9591.1.2 switch=n enabled=y phases=2 Linecode=1P_OH_AL_2/0_Rucina_2

New Line.l(r:p1rdm4399-p1rdt2209lv) Units=km Length=0.0341501 bus1=p1rdt2209lv.1.2 bus2=p1rdm4399.1.2 switch=n enabled=y phases=2 Linecode=1P_OH_AL_4/0_Zuzara_2

New Line.l(r:p1rdm4400-p1rlv4351) Units=km Length=0.013979000000000002 bus1=p1rdm4400.1.2 bus2=p1rlv4351.1.2 switch=n enabled=y phases=2 Linecode=1P_OH_AL_2/0_Rucina_2

New Line.l(r:p1rdm4400-p1rdt2210lv) Units=km Length=0.0397375 bus1=p1rdt2210lv.1.2 bus2=p1rdm4400.1.2 switch=n enabled=y phases=2 Linecode=1P_OH_AL_4/0_Zuzara_2

New Line.l(r:p1rdm4401-p1rlv4355) Units=km Length=0.00916812 bus1=p1rdm4401.1.2 bus2=p1rlv4355.1.2 switch=n enabled=y phases=2 Linecode=1P_OH_AL_2/0_Rucina_2

New Line.l(r:p1rdm4401-p1rdt2210lv) Units=km Length=0.03973770000000001 bus1=p1rdt2210lv.1.2 bus2=p1rdm4401.1.2 switch=n enabled=y phases=2 Linecode=1P_OH_AL_4/0_Zuzara_2

New Line.l(r:p1rdt2211lv-p1rlv4352) Units=km Length=0.0174008 bus1=p1rdt2211lv.1.2 bus2=p1rlv4352.1.2 switch=n enabled=y phases=2 Linecode=1P_OH_AL_2/0_Rucina_2

New Line.l(r:p1rdt2212lv-p1rlv4357) Units=km Length=0.001 bus1=p1rdt2212lv.1.2 bus2=p1rlv4357.1.2 switch=n enabled=y phases=2 Linecode=1P_OH_AL_4_Periwinkle_2

New Line.l(r:p1rdt2213lv-p1rlv4358) Units=km Length=0.001 bus1=p1rdt2213lv.1.2 bus2=p1rlv4358.1.2 switch=n enabled=y phases=2 Linecode=1P_OH_AL_4_Periwinkle_2

New Line.l(r:p1rdt2334lv-p1rlv4614) Units=km Length=0.0171482 bus1=p1rdt2334lv.1.2 bus2=p1rlv4614.1.2 switch=n enabled=y phases=2 Linecode=1P_OH_AL_2/0_Rucina_2

New Line.l(r:p1rdt2335lv-p1rlv4615) Units=km Length=0.00704035 bus1=p1rdt2335lv.1.2 bus2=p1rlv4615.1.2 switch=n enabled=y phases=2 Linecode=1P_OH_AL_2/0_Rucina_2

New Line.l(r:p1rdt2337lv-p1rlv4617) Units=km Length=0.0104395 bus1=p1rdt2337lv.1.2 bus2=p1rlv4617.1.2 switch=n enabled=y phases=2 Linecode=1P_OH_AL_2/0_Rucina_2

New Line.l(r:p1rdm4664-p1rlv4621) Units=km Length=0.013899900000000001 bus1=p1rdm4664.1.2 bus2=p1rlv4621.1.2 switch=n enabled=y phases=2 Linecode=1P_UG_AL_1/0_Brenau_2

New Line.l(r:p1rdm4664-p1rdt2338lv) Units=km Length=0.029147 bus1=p1rdt2338lv.1.2 bus2=p1rdm4664.1.2 switch=n enabled=y phases=2 Linecode=1P_UG_AL_1/0_Brenau_2

New Line.l(r:p1rdm4665-p1rlv4625) Units=km Length=0.0156154 bus1=p1rdm4665.1.2 bus2=p1rlv4625.1.2 switch=n enabled=y phases=2 Linecode=1P_UG_AL_1/0_Brenau_2

New Line.l(r:p1rdm4663-p1rlv4618) Units=km Length=0.0124804 bus1=p1rdm4663.1.2 bus2=p1rlv4618.1.2 switch=n enabled=y phases=2 Linecode=1P_UG_AL_1/0_Brenau_2

New Line.l(r:p1rdm4663-p1rdm4665) Units=km Length=0.0267878 bus1=p1rdm4665.1.2 bus2=p1rdm4663.1.2 switch=n enabled=y phases=2 Linecode=1P_UG_AL_1/0_Brenau_2

New Line.l(r:p1rdm4665-p1rdt2338lv) Units=km Length=0.00971682 bus1=p1rdt2338lv.1.2 bus2=p1rdm4665.1.2 switch=n enabled=y phases=2 Linecode=1P_UG_AL_1/0_Brenau_2

New Line.l(r:p1rdm4667-p1rlv4639) Units=km Length=0.0118915 bus1=p1rdm4667.1.2 bus2=p1rlv4639.1.2 switch=n enabled=y phases=2 Linecode=1P_UG_AL_1/0_Brenau_2

New Line.l(r:p1rdm4670-p1rlv4645) Units=km Length=0.0215008 bus1=p1rdm4670.1.2 bus2=p1rlv4645.1.2 switch=n enabled=y phases=2 Linecode=1P_UG_AL_1/0_Brenau_2

New Line.l(r:p1rdm4666-p1rlv4619) Units=km Length=0.011758 bus1=p1rdm4666.1.2 bus2=p1rlv4619.1.2 switch=n enabled=y phases=2 Linecode=1P_UG_AL_1/0_Brenau_2

New Line.l(r:p1rdm4666-p1rdm4670) Units=km Length=0.00763094 bus1=p1rdm4670.1.2 bus2=p1rdm4666.1.2 switch=n enabled=y phases=2 Linecode=1P_UG_AL_1/0_Brenau_2

New Line.l(r:p1rdm4667-p1rdm4670) Units=km Length=0.0228981 bus1=p1rdm4667.1.2 bus2=p1rdm4670.1.2 switch=n enabled=y phases=2 Linecode=1P_UG_AL_1/0_Brenau_2

New Line.l(r:p1rdm4667-p1rdt2339lv) Units=km Length=0.00950827 bus1=p1rdt2339lv.1.2 bus2=p1rdm4667.1.2 switch=n enabled=y phases=2 Linecode=1P_UG_AL_1/0_Brenau_2

New Line.l(r:p1rdm4668-p1rlv4640) Units=km Length=0.0151616 bus1=p1rdm4668.1.2 bus2=p1rlv4640.1.2 switch=n enabled=y phases=2 Linecode=1P_UG_AL_1/0_Brenau_2

New Line.l(r:p1rdm4669-p1rlv4644) Units=km Length=0.00658636 bus1=p1rdm4669.1.2 bus2=p1rlv4644.1.2 switch=n enabled=y phases=2 Linecode=1P_UG_AL_1/0_Brenau_2

New Line.l(r:p1rdm4668-p1rdm4669) Units=km Length=0.0548052 bus1=p1rdm4668.1.2 bus2=p1rdm4669.1.2 switch=n enabled=y phases=2 Linecode=1P_UG_AL_1/0_Brenau_2

New Line.l(r:p1rdm4668-p1rdt2339lv) Units=km Length=0.057269 bus1=p1rdt2339lv.1.2 bus2=p1rdm4668.1.2 switch=n enabled=y phases=2 Linecode=1P_UG_AL_1/0_Brenau_2

New Line.l(r:p1rdm4671-p1rlv4620) Units=km Length=0.00981412 bus1=p1rdm4671.1.2 bus2=p1rlv4620.1.2 switch=n enabled=y phases=2 Linecode=1P_UG_AL_1/0_Brenau_2

New Line.l(r:p1rdm4671-p1rdt2340lv) Units=km Length=0.0180619 bus1=p1rdt2340lv.1.2 bus2=p1rdm4671.1.2 switch=n enabled=y phases=2 Linecode=1P_UG_AL_1/0_Brenau_2

New Line.l(r:p1rdm4672-p1rlv4623) Units=km Length=0.006277790000000001 bus1=p1rdm4672.1.2 bus2=p1rlv4623.1.2 switch=n enabled=y phases=2 Linecode=1P_UG_AL_1/0_Brenau_2

New Line.l(r:p1rdm4672-p1rdt2340lv) Units=km Length=0.00902273 bus1=p1rdt2340lv.1.2 bus2=p1rdm4672.1.2 switch=n enabled=y phases=2 Linecode=1P_UG_AL_1/0_Brenau_2

New Line.l(r:p1rdm4673-p1rlv4622) Units=km Length=0.0129543 bus1=p1rdm4673.1.2 bus2=p1rlv4622.1.2 switch=n enabled=y phases=2 Linecode=1P_UG_AL_1/0_Brenau_2

New Line.l(r:p1rdm4673-p1rdt2341lv) Units=km Length=0.038902400000000004 bus1=p1rdt2341lv.1.2 bus2=p1rdm4673.1.2 switch=n enabled=y phases=2 Linecode=1P_UG_AL_1/0_Brenau_2

New Line.l(r:p1rdm4674-p1rlv4624) Units=km Length=0.00535855 bus1=p1rdm4674.1.2 bus2=p1rlv4624.1.2 switch=n enabled=y phases=2 Linecode=1P_UG_AL_1/0_Brenau_2

New Line.l(r:p1rdm4674-p1rdt2341lv) Units=km Length=0.0655641 bus1=p1rdt2341lv.1.2 bus2=p1rdm4674.1.2 switch=n enabled=y phases=2 Linecode=1P_UG_AL_1/0_Brenau_2

New Line.l(r:p1rdm4675-p1rlv4631) Units=km Length=0.0150047 bus1=p1rdm4675.1.2 bus2=p1rlv4631.1.2 switch=n enabled=y phases=2 Linecode=1P_UG_AL_1/0_Brenau_2

New Line.l(r:p1rdm4675-p1rdt2341lv) Units=km Length=0.0941898 bus1=p1rdt2341lv.1.2 bus2=p1rdm4675.1.2 switch=n enabled=y phases=2 Linecode=1P_UG_AL_1/0_Brenau_2

New Line.l(r:p1rdm4676-p1rlv4626) Units=km Length=0.0121241 bus1=p1rdm4676.1.2 bus2=p1rlv4626.1.2 switch=n enabled=y phases=2 Linecode=1P_UG_AL_1/0_Brenau_2

New Line.l(r:p1rdm4676-p1rlv4627) Units=km Length=0.00328219 bus1=p1rdm4676.1.2 bus2=p1rlv4627.1.2 switch=n enabled=y phases=2 Linecode=1P_UG_AL_1/0_Brenau_2

New Line.l(r:p1rdm4676-p1rdt2342lv) Units=km Length=0.00946474 bus1=p1rdt2342lv.1.2 bus2=p1rdm4676.1.2 switch=n enabled=y phases=2 Linecode=1P_UG_AL_1/0_Brenau_2

New Line.l(r:p1rdm4678-p1rlv4628) Units=km Length=0.00810386 bus1=p1rdm4678.1.2 bus2=p1rlv4628.1.2 switch=n enabled=y phases=2 Linecode=1P_UG_AL_1/0_Brenau_2

New Line.l(r:p1rdm4678-p1rdt2342lv) Units=km Length=0.0195261 bus1=p1rdt2342lv.1.2 bus2=p1rdm4678.1.2 switch=n enabled=y phases=2 Linecode=1P_UG_AL_1/0_Brenau_2

New Line.l(r:p1rdm4679-p1rlv4629) Units=km Length=0.014976 bus1=p1rdm4679.1.2 bus2=p1rlv4629.1.2 switch=n enabled=y phases=2 Linecode=1P_UG_AL_1/0_Brenau_2

New Line.l(r:p1rdm4679-p1rdt2343lv) Units=km Length=0.0144978 bus1=p1rdt2343lv.1.2 bus2=p1rdm4679.1.2 switch=n enabled=y phases=2 Linecode=1P_UG_AL_1/0_Brenau_2

New Line.l(r:p1rdm4680-p1rlv4633) Units=km Length=0.017019700000000002 bus1=p1rdm4680.1.2 bus2=p1rlv4633.1.2 switch=n enabled=y phases=2 Linecode=1P_UG_AL_1/0_Brenau_2

New Line.l(r:p1rdm4680-p1rdt2343lv) Units=km Length=0.00757243 bus1=p1rdt2343lv.1.2 bus2=p1rdm4680.1.2 switch=n enabled=y phases=2 Linecode=1P_UG_AL_1/0_Brenau_2

New Line.l(r:p1rdm4682-p1rlv4634) Units=km Length=0.00756604 bus1=p1rdm4682.1.2 bus2=p1rlv4634.1.2 switch=n enabled=y phases=2 Linecode=1P_UG_AL_1/0_Brenau_2

New Line.l(r:p1rdm4681-p1rlv4630) Units=km Length=0.0172146 bus1=p1rdm4681.1.2 bus2=p1rlv4630.1.2 switch=n enabled=y phases=2 Linecode=1P_UG_AL_1/0_Brenau_2

New Line.l(r:p1rdm4681-p1rdm4682) Units=km Length=0.00953639 bus1=p1rdm4682.1.2 bus2=p1rdm4681.1.2 switch=n enabled=y phases=2 Linecode=1P_UG_AL_1/0_Brenau_2

New Line.l(r:p1rdm4682-p1rdt2344lv) Units=km Length=0.00938626 bus1=p1rdt2344lv.1.2 bus2=p1rdm4682.1.2 switch=n enabled=y phases=2 Linecode=1P_UG_AL_1/0_Brenau_2

New Line.l(r:p1rdm4683-p1rlv4635) Units=km Length=0.0113582 bus1=p1rdm4683.1.2 bus2=p1rlv4635.1.2 switch=n enabled=y phases=2 Linecode=1P_UG_AL_1/0_Brenau_2

New Line.l(r:p1rdm4683-p1rdt2344lv) Units=km Length=0.0218783 bus1=p1rdt2344lv.1.2 bus2=p1rdm4683.1.2 switch=n enabled=y phases=2 Linecode=1P_UG_AL_1/0_Brenau_2

New Line.l(r:p1rdm4684-p1rlv4632) Units=km Length=0.0148477 bus1=p1rdm4684.1.2 bus2=p1rlv4632.1.2 switch=n enabled=y phases=2 Linecode=1P_UG_AL_1/0_Brenau_2

New Line.l(r:p1rdm4684-p1rdt2345lv) Units=km Length=0.017485700000000003 bus1=p1rdt2345lv.1.2 bus2=p1rdm4684.1.2 switch=n enabled=y phases=2 Linecode=1P_UG_AL_1/0_Brenau_2

New Line.l(r:p1rdm4685-p1rlv4643) Units=km Length=0.00885692 bus1=p1rdm4685.1.2 bus2=p1rlv4643.1.2 switch=n enabled=y phases=2 Linecode=1P_UG_AL_1/0_Brenau_2

New Line.l(r:p1rdm4685-p1rdt2345lv) Units=km Length=0.00533923 bus1=p1rdt2345lv.1.2 bus2=p1rdm4685.1.2 switch=n enabled=y phases=2 Linecode=1P_UG_AL_1/0_Brenau_2

New Line.l(r:p1rdm4686-p1rlv4636) Units=km Length=0.0279091 bus1=p1rdm4686.1.2 bus2=p1rlv4636.1.2 switch=n enabled=y phases=2 Linecode=1P_UG_AL_1/0_Brenau_2

New Line.l(r:p1rdm4686-p1rdt2346lv) Units=km Length=0.0165128 bus1=p1rdt2346lv.1.2 bus2=p1rdm4686.1.2 switch=n enabled=y phases=2 Linecode=1P_UG_AL_1/0_Brenau_2

New Line.l(r:p1rdm4687-p1rlv4637) Units=km Length=0.026809900000000005 bus1=p1rdm4687.1.2 bus2=p1rlv4637.1.2 switch=n enabled=y phases=2 Linecode=1P_UG_AL_1/0_Brenau_2

New Line.l(r:p1rdm4687-p1rdt2346lv) Units=km Length=0.0103344 bus1=p1rdt2346lv.1.2 bus2=p1rdm4687.1.2 switch=n enabled=y phases=2 Linecode=1P_UG_AL_1/0_Brenau_2

New Line.l(r:p1rdm4688-p1rlv4638) Units=km Length=0.0239879 bus1=p1rdm4688.1.2 bus2=p1rlv4638.1.2 switch=n enabled=y phases=2 Linecode=1P_UG_AL_1/0_Brenau_2

New Line.l(r:p1rdm4688-p1rdt2347lv) Units=km Length=0.0377806 bus1=p1rdt2347lv.1.2 bus2=p1rdm4688.1.2 switch=n enabled=y phases=2 Linecode=1P_OH_AL_4/0_Zuzara_2

New Line.l(r:p1rdm4690-p1rlv4642) Units=km Length=0.00648908 bus1=p1rdm4690.1.2 bus2=p1rlv4642.1.2 switch=n enabled=y phases=2 Linecode=1P_OH_AL_2/0_Rucina_2

New Line.l(r:p1rdm4689-p1rlv4641) Units=km Length=0.0152303 bus1=p1rdm4689.1.2 bus2=p1rlv4641.1.2 switch=n enabled=y phases=2 Linecode=1P_OH_AL_2/0_Rucina_2

New Line.l(r:p1rdm4689-p1rdm4690) Units=km Length=0.0737367 bus1=p1rdm4690.1.2 bus2=p1rdm4689.1.2 switch=n enabled=y phases=2 Linecode=1P_OH_AL_4/0_Zuzara_2

New Line.l(r:p1rdm4690-p1rdt2347lv) Units=km Length=0.00622807 bus1=p1rdt2347lv.1.2 bus2=p1rdm4690.1.2 switch=n enabled=y phases=2 Linecode=1P_OH_AL_2/0_Rucina_2

New Line.l(r:p1rdt2348lv-p1rlv4646) Units=km Length=0.0594827 bus1=p1rdt2348lv.1.2 bus2=p1rlv4646.1.2 switch=n enabled=y phases=2 Linecode=1P_OH_AL_4/0_Zuzara_2

New Line.l(r:p1rdt2349lv-p1rlv4649) Units=km Length=0.0060353 bus1=p1rdt2349lv.1.2 bus2=p1rlv4649.1.2 switch=n enabled=y phases=2 Linecode=1P_OH_AL_2/0_Rucina_2

New Line.l(r:p1rdm4692-p1rlv4647) Units=km Length=0.00865197 bus1=p1rdm4692.1.2 bus2=p1rlv4647.1.2 switch=n enabled=y phases=2 Linecode=1P_OH_AL_2/0_Rucina_2

New Line.l(r:p1rdm4692-p1rdt2349lv) Units=km Length=0.0107094 bus1=p1rdt2349lv.1.2 bus2=p1rdm4692.1.2 switch=n enabled=y phases=2 Linecode=1P_OH_AL_2/0_Rucina_2

New Line.l(r:p1rdm4693-p1rlv4648) Units=km Length=0.0185051 bus1=p1rdm4693.1.2 bus2=p1rlv4648.1.2 switch=n enabled=y phases=2 Linecode=1P_OH_AL_2/0_Rucina_2

New Line.l(r:p1rdm4693-p1rdt2349lv) Units=km Length=0.0107145 bus1=p1rdt2349lv.1.2 bus2=p1rdm4693.1.2 switch=n enabled=y phases=2 Linecode=1P_OH_AL_2/0_Rucina_2

New Line.l(r:p1rdm4695-p1rlv4650) Units=km Length=0.012617 bus1=p1rdm4695.1.2 bus2=p1rlv4650.1.2 switch=n enabled=y phases=2 Linecode=1P_OH_AL_2/0_Rucina_2

New Line.l(r:p1rdm4695-p1rdt2350lv) Units=km Length=0.0223858 bus1=p1rdt2350lv.1.2 bus2=p1rdm4695.1.2 switch=n enabled=y phases=2 Linecode=1P_OH_AL_2/0_Rucina_2

New Line.l(r:p1rdm4696-p1rlv9450) Units=km Length=0.0143416 bus1=p1rdm4696.1.2 bus2=p1rlv9450.1.2 switch=n enabled=y phases=2 Linecode=1P_OH_AL_2/0_Rucina_2

New Line.l(r:p1rdm4696-p1rdt2350lv) Units=km Length=0.024517700000000003 bus1=p1rdt2350lv.1.2 bus2=p1rdm4696.1.2 switch=n enabled=y phases=2 Linecode=1P_OH_AL_2/0_Rucina_2

New Line.l(r:p1rdt2351lv-p1rlv4673) Units=km Length=0.013709500000000001 bus1=p1rdt2351lv.1.2 bus2=p1rlv4673.1.2 switch=n enabled=y phases=2 Linecode=1P_OH_AL_2/0_Rucina_2

New Line.l(r:p1rdm4697-p1rlv4651) Units=km Length=0.0153386 bus1=p1rdm4697.1.2 bus2=p1rlv4651.1.2 switch=n enabled=y phases=2 Linecode=1P_OH_AL_2/0_Rucina_2

New Line.l(r:p1rdm4698-p1rlv4666) Units=km Length=0.0117889 bus1=p1rdm4698.1.2 bus2=p1rlv4666.1.2 switch=n enabled=y phases=2 Linecode=1P_OH_AL_2/0_Rucina_2

New Line.l(r:p1rdm4697-p1rdm4698) Units=km Length=0.04469920000000001 bus1=p1rdm4697.1.2 bus2=p1rdm4698.1.2 switch=n enabled=y phases=2 Linecode=1P_OH_AL_4/0_Zuzara_2

New Line.l(r:p1rdm4697-p1rdt2351lv) Units=km Length=0.0270523 bus1=p1rdt2351lv.1.2 bus2=p1rdm4697.1.2 switch=n enabled=y phases=2 Linecode=1P_OH_AL_4/0_Zuzara_2

New Line.l(r:p1rdm4701-p1rlv4672) Units=km Length=0.0333509 bus1=p1rdm4701.1.2 bus2=p1rlv4672.1.2 switch=n enabled=y phases=2 Linecode=1P_OH_AL_4/0_Zuzara_2

New Line.l(r:p1rdm4700-p1rlv4671) Units=km Length=0.0200923 bus1=p1rdm4700.1.2 bus2=p1rlv4671.1.2 switch=n enabled=y phases=2 Linecode=1P_OH_AL_2/0_Rucina_2

New Line.l(r:p1rdm4699-p1rlv4667) Units=km Length=0.0162547 bus1=p1rdm4699.1.2 bus2=p1rlv4667.1.2 switch=n enabled=y phases=2 Linecode=1P_OH_AL_2/0_Rucina_2

New Line.l(r:p1rdm4699-p1rdm4700) Units=km Length=0.015269500000000002 bus1=p1rdm4700.1.2 bus2=p1rdm4699.1.2 switch=n enabled=y phases=2 Linecode=1P_OH_AL_2/0_Rucina_2

New Line.l(r:p1rdm4700-p1rdm4701) Units=km Length=0.0661686 bus1=p1rdm4701.1.2 bus2=p1rdm4700.1.2 switch=n enabled=y phases=2 Linecode=1P_OH_AL_4/0_Zuzara_2

New Line.l(r:p1rdm4701-p1rdt2351lv) Units=km Length=0.0649503 bus1=p1rdt2351lv.1.2 bus2=p1rdm4701.1.2 switch=n enabled=y phases=2 Linecode=1P_OH_AL_4/0_Zuzara_2

New Line.l(r:p1rdt2352lv-p1rlv4652) Units=km Length=0.0113207 bus1=p1rdt2352lv.1.2 bus2=p1rlv4652.1.2 switch=n enabled=y phases=2 Linecode=1P_OH_AL_2/0_Rucina_2

New Line.l(r:p1rdm4704-p1rlv4653) Units=km Length=0.015809 bus1=p1rdm4704.1.2 bus2=p1rlv4653.1.2 switch=n enabled=y phases=2 Linecode=1P_OH_AL_2/0_Rucina_2

New Line.l(r:p1rdm4704-p1rdt2352lv) Units=km Length=0.0116846 bus1=p1rdt2352lv.1.2 bus2=p1rdm4704.1.2 switch=n enabled=y phases=2 Linecode=1P_OH_AL_2/0_Rucina_2

New Line.l(r:p1rdm4705-p1rlv4654) Units=km Length=0.00883009 bus1=p1rdm4705.1.2 bus2=p1rlv4654.1.2 switch=n enabled=y phases=2 Linecode=1P_OH_AL_2/0_Rucina_2

New Line.l(r:p1rdm4705-p1rdt2353lv) Units=km Length=0.00738366 bus1=p1rdt2353lv.1.2 bus2=p1rdm4705.1.2 switch=n enabled=y phases=2 Linecode=1P_OH_AL_2/0_Rucina_2

New Line.l(r:p1rdm4706-p1rlv4655) Units=km Length=0.013343 bus1=p1rdm4706.1.2 bus2=p1rlv4655.1.2 switch=n enabled=y phases=2 Linecode=1P_OH_AL_2/0_Rucina_2

New Line.l(r:p1rdm4706-p1rdt2353lv) Units=km Length=0.008021 bus1=p1rdt2353lv.1.2 bus2=p1rdm4706.1.2 switch=n enabled=y phases=2 Linecode=1P_OH_AL_2/0_Rucina_2

New Line.l(r:p1rdt2354lv-p1rlv4657) Units=km Length=0.014648600000000001 bus1=p1rdt2354lv.1.2 bus2=p1rlv4657.1.2 switch=n enabled=y phases=2 Linecode=1P_OH_AL_2/0_Rucina_2

New Line.l(r:p1rdt2354lv-p1rlv4687) Units=km Length=0.022572 bus1=p1rdt2354lv.1.2 bus2=p1rlv4687.1.2 switch=n enabled=y phases=2 Linecode=1P_OH_AL_2/0_Rucina_2

New Line.l(r:p1rdm4707-p1rlv4656) Units=km Length=0.017195900000000004 bus1=p1rdm4707.1.2 bus2=p1rlv4656.1.2 switch=n enabled=y phases=2 Linecode=1P_OH_AL_2/0_Rucina_2

New Line.l(r:p1rdm4707-p1rdt2354lv) Units=km Length=0.0264288 bus1=p1rdt2354lv.1.2 bus2=p1rdm4707.1.2 switch=n enabled=y phases=2 Linecode=1P_OH_AL_2/0_Rucina_2

New Line.l(r:p1rdm4709-p1rlv4659) Units=km Length=0.0103745 bus1=p1rdm4709.1.2 bus2=p1rlv4659.1.2 switch=n enabled=y phases=2 Linecode=1P_OH_AL_2/0_Rucina_2

New Line.l(r:p1rdm4710-p1rlv4686) Units=km Length=0.0331363 bus1=p1rdm4710.1.2 bus2=p1rlv4686.1.2 switch=n enabled=y phases=2 Linecode=1P_OH_AL_4/0_Zuzara_2

New Line.l(r:p1rdm4709-p1rdm4710) Units=km Length=0.014019700000000001 bus1=p1rdm4709.1.2 bus2=p1rdm4710.1.2 switch=n enabled=y phases=2 Linecode=1P_OH_AL_2/0_Rucina_2

New Line.l(r:p1rdm4709-p1rdt2354lv) Units=km Length=0.0223367 bus1=p1rdt2354lv.1.2 bus2=p1rdm4709.1.2 switch=n enabled=y phases=2 Linecode=1P_OH_AL_2/0_Rucina_2

New Line.l(r:p1rdm4712-p1rlv4658) Units=km Length=0.0154337 bus1=p1rdm4712.1.2 bus2=p1rlv4658.1.2 switch=n enabled=y phases=2 Linecode=1P_OH_AL_2/0_Rucina_2

New Line.l(r:p1rdm4712-p1rlv4661) Units=km Length=0.0244263 bus1=p1rdm4712.1.2 bus2=p1rlv4661.1.2 switch=n enabled=y phases=2 Linecode=1P_OH_AL_2/0_Rucina_2

New Line.l(r:p1rdm4712-p1rdt2355lv) Units=km Length=0.0342016 bus1=p1rdt2355lv.1.2 bus2=p1rdm4712.1.2 switch=n enabled=y phases=2 Linecode=1P_OH_AL_4/0_Zuzara_2

New Line.l(r:p1rdm4714-p1rlv4665) Units=km Length=0.0141563 bus1=p1rdm4714.1.2 bus2=p1rlv4665.1.2 switch=n enabled=y phases=2 Linecode=1P_OH_AL_2/0_Rucina_2

New Line.l(r:p1rdm4714-p1rdt2355lv) Units=km Length=0.0579725 bus1=p1rdt2355lv.1.2 bus2=p1rdm4714.1.2 switch=n enabled=y phases=2 Linecode=1P_OH_AL_4/0_Zuzara_2

New Line.l(r:p1rdm4715-p1rlv4660) Units=km Length=0.00942828 bus1=p1rdm4715.1.2 bus2=p1rlv4660.1.2 switch=n enabled=y phases=2 Linecode=1P_OH_AL_2/0_Rucina_2

New Line.l(r:p1rdm4715-p1rdt2356lv) Units=km Length=0.0227326 bus1=p1rdt2356lv.1.2 bus2=p1rdm4715.1.2 switch=n enabled=y phases=2 Linecode=1P_OH_AL_2/0_Rucina_2

New Line.l(r:p1rdm4716-p1rlv4674) Units=km Length=0.0191029 bus1=p1rdm4716.1.2 bus2=p1rlv4674.1.2 switch=n enabled=y phases=2 Linecode=1P_OH_AL_2/0_Rucina_2

New Line.l(r:p1rdm4716-p1rdt2356lv) Units=km Length=0.0136331 bus1=p1rdt2356lv.1.2 bus2=p1rdm4716.1.2 switch=n enabled=y phases=2 Linecode=1P_OH_AL_2/0_Rucina_2

New Line.l(r:p1rdm4717-p1rlv4662) Units=km Length=0.0272803 bus1=p1rdm4717.1.2 bus2=p1rlv4662.1.2 switch=n enabled=y phases=2 Linecode=1P_OH_AL_4/0_Zuzara_2

New Line.l(r:p1rdm4717-p1rlv4663) Units=km Length=0.0129246 bus1=p1rdm4717.1.2 bus2=p1rlv4663.1.2 switch=n enabled=y phases=2 Linecode=1P_OH_AL_2/0_Rucina_2

New Line.l(r:p1rdm4719-p1rlv4664) Units=km Length=0.0231851 bus1=p1rdm4719.1.2 bus2=p1rlv4664.1.2 switch=n enabled=y phases=2 Linecode=1P_OH_AL_2/0_Rucina_2

New Line.l(r:p1rdm4717-p1rdm4719) Units=km Length=0.00725096 bus1=p1rdm4717.1.2 bus2=p1rdm4719.1.2 switch=n enabled=y phases=2 Linecode=1P_OH_AL_2/0_Rucina_2

New Line.l(r:p1rdm4717-p1rdt2357lv) Units=km Length=0.00766975 bus1=p1rdt2357lv.1.2 bus2=p1rdm4717.1.2 switch=n enabled=y phases=2 Linecode=1P_OH_AL_2/0_Rucina_2

New Line.l(r:p1rdm4720-p1rlv5998) Units=km Length=0.018609 bus1=p1rdm4720.1.2 bus2=p1rlv5998.1.2 switch=n enabled=y phases=2 Linecode=1P_OH_AL_2/0_Rucina_2

New Line.l(r:p1rdm4720-p1rdt2357lv) Units=km Length=0.0687492 bus1=p1rdt2357lv.1.2 bus2=p1rdm4720.1.2 switch=n enabled=y phases=2 Linecode=1P_OH_AL_4/0_Zuzara_2

New Line.l(r:p1rdt2358lv-p1rlv4669) Units=km Length=0.0235711 bus1=p1rdt2358lv.1.2 bus2=p1rlv4669.1.2 switch=n enabled=y phases=2 Linecode=1P_OH_AL_2/0_Rucina_2

New Line.l(r:p1rdm4721-p1rlv4668) Units=km Length=0.0247852 bus1=p1rdm4721.1.2 bus2=p1rlv4668.1.2 switch=n enabled=y phases=2 Linecode=1P_OH_AL_2/0_Rucina_2

New Line.l(r:p1rdm4721-p1rdt2358lv) Units=km Length=0.0149142 bus1=p1rdt2358lv.1.2 bus2=p1rdm4721.1.2 switch=n enabled=y phases=2 Linecode=1P_OH_AL_2/0_Rucina_2

New Line.l(r:p1rdm4723-p1rlv4670) Units=km Length=0.0128561 bus1=p1rdm4723.1.2 bus2=p1rlv4670.1.2 switch=n enabled=y phases=2 Linecode=1P_OH_AL_2/0_Rucina_2

New Line.l(r:p1rdm4723-p1rdt2358lv) Units=km Length=0.0100589 bus1=p1rdt2358lv.1.2 bus2=p1rdm4723.1.2 switch=n enabled=y phases=2 Linecode=1P_OH_AL_2/0_Rucina_2

New Line.l(r:p1rdm4724-p1rlv4675) Units=km Length=0.0311909 bus1=p1rdm4724.1.2 bus2=p1rlv4675.1.2 switch=n enabled=y phases=2 Linecode=1P_OH_AL_4/0_Zuzara_2

New Line.l(r:p1rdm4724-p1rdt2359lv) Units=km Length=0.0127027 bus1=p1rdt2359lv.1.2 bus2=p1rdm4724.1.2 switch=n enabled=y phases=2 Linecode=1P_OH_AL_2/0_Rucina_2

New Line.l(r:p1rdm4725-p1rlv9453) Units=km Length=0.0291018 bus1=p1rdm4725.1.2 bus2=p1rlv9453.1.2 switch=n enabled=y phases=2 Linecode=1P_OH_AL_4/0_Zuzara_2

New Line.l(r:p1rdm4725-p1rdt2359lv) Units=km Length=0.012700700000000002 bus1=p1rdt2359lv.1.2 bus2=p1rdm4725.1.2 switch=n enabled=y phases=2 Linecode=1P_OH_AL_2/0_Rucina_2

New Line.l(r:p1rdt2360lv-p1rlv4676) Units=km Length=0.0137731 bus1=p1rdt2360lv.1.2 bus2=p1rlv4676.1.2 switch=n enabled=y phases=2 Linecode=1P_OH_AL_2/0_Rucina_2

New Line.l(r:p1rdt2361lv-p1rlv4678) Units=km Length=0.0293482 bus1=p1rdt2361lv.1.2 bus2=p1rlv4678.1.2 switch=n enabled=y phases=2 Linecode=1P_OH_AL_4/0_Zuzara_2

New Line.l(r:p1rdt2361lv-p1rlv4679) Units=km Length=0.00906427 bus1=p1rdt2361lv.1.2 bus2=p1rlv4679.1.2 switch=n enabled=y phases=2 Linecode=1P_OH_AL_2/0_Rucina_2

New Line.l(r:p1rdt2361lv-p1rlv4684) Units=km Length=0.024042 bus1=p1rdt2361lv.1.2 bus2=p1rlv4684.1.2 switch=n enabled=y phases=2 Linecode=1P_OH_AL_2/0_Rucina_2

New Line.l(r:p1rdm4727-p1rlv4677) Units=km Length=0.0158859 bus1=p1rdm4727.1.2 bus2=p1rlv4677.1.2 switch=n enabled=y phases=2 Linecode=1P_OH_AL_2/0_Rucina_2

New Line.l(r:p1rdm4727-p1rdt2361lv) Units=km Length=0.0797088 bus1=p1rdt2361lv.1.2 bus2=p1rdm4727.1.2 switch=n enabled=y phases=2 Linecode=1P_OH_AL_4/0_Zuzara_2

New Line.l(r:p1rdm4730-p1rlv4680) Units=km Length=0.0175663 bus1=p1rdm4730.1.2 bus2=p1rlv4680.1.2 switch=n enabled=y phases=2 Linecode=1P_OH_AL_2/0_Rucina_2

New Line.l(r:p1rdm4732-p1rlv9033) Units=km Length=0.0231281 bus1=p1rdm4732.1.2 bus2=p1rlv9033.1.2 switch=n enabled=y phases=2 Linecode=1P_OH_AL_2/0_Rucina_2

New Line.l(r:p1rdm4730-p1rdm4732) Units=km Length=0.0413941 bus1=p1rdm4730.1.2 bus2=p1rdm4732.1.2 switch=n enabled=y phases=2 Linecode=1P_OH_AL_4/0_Zuzara_2

New Line.l(r:p1rdm4730-p1rdt2361lv) Units=km Length=0.0181527 bus1=p1rdt2361lv.1.2 bus2=p1rdm4730.1.2 switch=n enabled=y phases=2 Linecode=1P_OH_AL_2/0_Rucina_2

New Line.l(r:p1rdm4733-p1rlv4681) Units=km Length=0.0194811 bus1=p1rdm4733.1.2 bus2=p1rlv4681.1.2 switch=n enabled=y phases=2 Linecode=1P_OH_AL_2/0_Rucina_2

New Line.l(r:p1rdm4736-p1rlv9029) Units=km Length=0.0315854 bus1=p1rdm4736.1.2 bus2=p1rlv9029.1.2 switch=n enabled=y phases=2 Linecode=1P_OH_AL_4/0_Zuzara_2

New Line.l(r:p1rdm4733-p1rdm4736) Units=km Length=0.0175055 bus1=p1rdm4733.1.2 bus2=p1rdm4736.1.2 switch=n enabled=y phases=2 Linecode=1P_OH_AL_2/0_Rucina_2

New Line.l(r:p1rdm4733-p1rdt2362lv) Units=km Length=0.013185200000000001 bus1=p1rdt2362lv.1.2 bus2=p1rdm4733.1.2 switch=n enabled=y phases=2 Linecode=1P_OH_AL_2/0_Rucina_2

New Line.l(r:p1rdm4734-p1rlv4682) Units=km Length=0.0259578 bus1=p1rdm4734.1.2 bus2=p1rlv4682.1.2 switch=n enabled=y phases=2 Linecode=1P_OH_AL_2/0_Rucina_2

New Line.l(r:p1rdm4735-p1rlv4683) Units=km Length=0.0204091 bus1=p1rdm4735.1.2 bus2=p1rlv4683.1.2 switch=n enabled=y phases=2 Linecode=1P_OH_AL_2/0_Rucina_2

New Line.l(r:p1rdm4734-p1rdm4735) Units=km Length=0.013689 bus1=p1rdm4734.1.2 bus2=p1rdm4735.1.2 switch=n enabled=y phases=2 Linecode=1P_OH_AL_2/0_Rucina_2

New Line.l(r:p1rdm4734-p1rdt2362lv) Units=km Length=0.0140303 bus1=p1rdt2362lv.1.2 bus2=p1rdm4734.1.2 switch=n enabled=y phases=2 Linecode=1P_OH_AL_2/0_Rucina_2

New Line.l(r:p1rdt2363lv-p1rlv4685) Units=km Length=0.020912 bus1=p1rdt2363lv.1.2 bus2=p1rlv4685.1.2 switch=n enabled=y phases=2 Linecode=1P_OH_AL_2/0_Rucina_2

New Line.l(r:p1rdt2363lv-p1rlv9452) Units=km Length=0.0129359 bus1=p1rdt2363lv.1.2 bus2=p1rlv9452.1.2 switch=n enabled=y phases=2 Linecode=1P_OH_AL_2/0_Rucina_2

New Line.l(r:p1rdm4863-p1rlv4816) Units=km Length=0.00986071 bus1=p1rdm4863.1.2 bus2=p1rlv4816.1.2 switch=n enabled=y phases=2 Linecode=1P_UG_AL_4/0_Sweetbriar_2

New Line.l(r:p1rdm4864-p1rlv4817) Units=km Length=0.00262711 bus1=p1rdm4864.1.2 bus2=p1rlv4817.1.2 switch=n enabled=y phases=2 Linecode=1P_UG_AL_2/0_Converse_2

New Line.l(r:p1rdm4863-p1rdm4864) Units=km Length=0.0169743 bus1=p1rdm4863.1.2 bus2=p1rdm4864.1.2 switch=n enabled=y phases=2 Linecode=1P_UG_AL_2/0_Converse_2

New Line.l(r:p1rdm4863-p1rdt2431lv) Units=km Length=0.0254779 bus1=p1rdt2431lv.1.2 bus2=p1rdm4863.1.2 switch=n enabled=y phases=2 Linecode=1P_UG_AL_4/0_Sweetbriar_2

New Line.l(r:p1rdm4865-p1rlv4819) Units=km Length=0.00533361 bus1=p1rdm4865.1.2 bus2=p1rlv4819.1.2 switch=n enabled=y phases=2 Linecode=1P_UG_AL_1/0_Brenau_2

New Line.l(r:p1rdm4865-p1rdt2431lv) Units=km Length=0.0810997 bus1=p1rdt2431lv.1.2 bus2=p1rdm4865.1.2 switch=n enabled=y phases=2 Linecode=1P_UG_AL_1/0_Brenau_2

New Line.l(r:p1rdt2433lv-p1rlv4820) Units=km Length=0.00965117 bus1=p1rdt2433lv.1.2 bus2=p1rlv4820.1.2 switch=n enabled=y phases=2 Linecode=1P_UG_AL_1/0_Brenau_2

New Line.l(r:p1rdt2435lv-p1rlv4822) Units=km Length=0.0561351 bus1=p1rdt2435lv.1.2 bus2=p1rlv4822.1.2 switch=n enabled=y phases=2 Linecode=1P_UG_AL_1/0_Brenau_2

New Line.l(r:p1rdt2435lv-p1rlv4828) Units=km Length=0.0902689 bus1=p1rdt2435lv.1.2 bus2=p1rlv4828.1.2 switch=n enabled=y phases=2 Linecode=1P_UG_AL_1/0_Brenau_2

New Line.l(r:p1rdt2437lv-p1rlv4824) Units=km Length=0.0470061 bus1=p1rdt2437lv.1.2 bus2=p1rlv4824.1.2 switch=n enabled=y phases=2 Linecode=1P_UG_AL_1/0_Brenau_2

New Line.l(r:p1rdt2437lv-p1rlv4825) Units=km Length=0.013165800000000002 bus1=p1rdt2437lv.1.2 bus2=p1rlv4825.1.2 switch=n enabled=y phases=2 Linecode=1P_UG_AL_1/0_Brenau_2

New Line.l(r:p1rdm4874-p1rlv4826) Units=km Length=0.0138436 bus1=p1rdm4874.1.2 bus2=p1rlv4826.1.2 switch=n enabled=y phases=2 Linecode=1P_UG_AL_1/0_Brenau_2

New Line.l(r:p1rdm4874-p1rdt2438lv) Units=km Length=0.0431952 bus1=p1rdt2438lv.1.2 bus2=p1rdm4874.1.2 switch=n enabled=y phases=2 Linecode=1P_UG_AL_1/0_Brenau_2

New Line.l(r:p1rdm4875-p1rlv4827) Units=km Length=0.00811281 bus1=p1rdm4875.1.2 bus2=p1rlv4827.1.2 switch=n enabled=y phases=2 Linecode=1P_UG_AL_1/0_Brenau_2

New Line.l(r:p1rdm4875-p1rdt2438lv) Units=km Length=0.0383105 bus1=p1rdt2438lv.1.2 bus2=p1rdm4875.1.2 switch=n enabled=y phases=2 Linecode=1P_UG_AL_1/0_Brenau_2

New Line.l(r:p1rdt2978lv-p1rlv5996) Units=km Length=0.0194959 bus1=p1rdt2978lv.1.2 bus2=p1rlv5996.1.2 switch=n enabled=y phases=2 Linecode=1P_OH_AL_2/0_Rucina_2

New Line.l(r:p1rdm6017-p1rlv5997) Units=km Length=0.0153153 bus1=p1rdm6017.1.2 bus2=p1rlv5997.1.2 switch=n enabled=y phases=2 Linecode=1P_OH_AL_2/0_Rucina_2

New Line.l(r:p1rdm6017-p1rlv9039) Units=km Length=0.0399104 bus1=p1rdm6017.1.2 bus2=p1rlv9039.1.2 switch=n enabled=y phases=2 Linecode=1P_OH_AL_4/0_Zuzara_2

New Line.l(r:p1rdm6017-p1rdt2978lv) Units=km Length=0.04096720000000001 bus1=p1rdt2978lv.1.2 bus2=p1rdm6017.1.2 switch=n enabled=y phases=2 Linecode=1P_OH_AL_4/0_Zuzara_2

New Line.l(r:p1rdm6018-p1rlv5999) Units=km Length=0.0115335 bus1=p1rdm6018.1.2 bus2=p1rlv5999.1.2 switch=n enabled=y phases=2 Linecode=1P_OH_AL_2/0_Rucina_2

New Line.l(r:p1rdm6015-p1rlv5995) Units=km Length=0.0145233 bus1=p1rdm6015.1.2 bus2=p1rlv5995.1.2 switch=n enabled=y phases=2 Linecode=1P_OH_AL_2/0_Rucina_2

New Line.l(r:p1rdm6014-p1rlv5994) Units=km Length=0.0158658 bus1=p1rdm6014.1.2 bus2=p1rlv5994.1.2 switch=n enabled=y phases=2 Linecode=1P_OH_AL_2/0_Rucina_2

New Line.l(r:p1rdm6014-p1rdm6015) Units=km Length=0.00886586 bus1=p1rdm6015.1.2 bus2=p1rdm6014.1.2 switch=n enabled=y phases=2 Linecode=1P_OH_AL_2/0_Rucina_2

New Line.l(r:p1rdm6015-p1rdm6018) Units=km Length=0.01033 bus1=p1rdm6018.1.2 bus2=p1rdm6015.1.2 switch=n enabled=y phases=2 Linecode=1P_OH_AL_2/0_Rucina_2

New Line.l(r:p1rdm6018-p1rdt2978lv) Units=km Length=0.0103495 bus1=p1rdt2978lv.1.2 bus2=p1rdm6018.1.2 switch=n enabled=y phases=2 Linecode=1P_OH_AL_2/0_Rucina_2

New Line.l(r:p1rdm6019-p1rlv6854) Units=km Length=0.0172336 bus1=p1rdm6019.1.2 bus2=p1rlv6854.1.2 switch=n enabled=y phases=2 Linecode=1P_OH_AL_2/0_Rucina_2

New Line.l(r:p1rdm6019-p1rdt2978lv) Units=km Length=0.0717369 bus1=p1rdt2978lv.1.2 bus2=p1rdm6019.1.2 switch=n enabled=y phases=2 Linecode=1P_OH_AL_4/0_Zuzara_2

New Line.l(r:p1rdm6022-p1rlv6001) Units=km Length=0.00879921 bus1=p1rdm6022.1.2 bus2=p1rlv6001.1.2 switch=n enabled=y phases=2 Linecode=1P_OH_AL_2/0_Rucina_2

New Line.l(r:p1rdm6021-p1rlv6000) Units=km Length=0.0239355 bus1=p1rdm6021.1.2 bus2=p1rlv6000.1.2 switch=n enabled=y phases=2 Linecode=1P_OH_AL_2/0_Rucina_2

New Line.l(r:p1rdm6021-p1rdm6022) Units=km Length=0.019198300000000005 bus1=p1rdm6022.1.2 bus2=p1rdm6021.1.2 switch=n enabled=y phases=2 Linecode=1P_OH_AL_2/0_Rucina_2

New Line.l(r:p1rdm6022-p1rdt2979lv) Units=km Length=0.0682615 bus1=p1rdt2979lv.1.2 bus2=p1rdm6022.1.2 switch=n enabled=y phases=2 Linecode=1P_OH_AL_4/0_Zuzara_2

New Line.l(r:p1rdm6023-p1rlv9042) Units=km Length=0.0299401 bus1=p1rdm6023.1.2 bus2=p1rlv9042.1.2 switch=n enabled=y phases=2 Linecode=1P_OH_AL_4/0_Zuzara_2

New Line.l(r:p1rdm6023-p1rdt2979lv) Units=km Length=0.0114957 bus1=p1rdt2979lv.1.2 bus2=p1rdm6023.1.2 switch=n enabled=y phases=2 Linecode=1P_OH_AL_2/0_Rucina_2

New Line.l(r:p1rdm6025-p1rlv6856) Units=km Length=0.0136969 bus1=p1rdm6025.1.2 bus2=p1rlv6856.1.2 switch=n enabled=y phases=2 Linecode=1P_OH_AL_2/0_Rucina_2

New Line.l(r:p1rdm6024-p1rlv6002) Units=km Length=0.03469680000000001 bus1=p1rdm6024.1.2 bus2=p1rlv6002.1.2 switch=n enabled=y phases=2 Linecode=1P_OH_AL_4/0_Zuzara_2

New Line.l(r:p1rdm6024-p1rdm6025) Units=km Length=0.0713278 bus1=p1rdm6025.1.2 bus2=p1rdm6024.1.2 switch=n enabled=y phases=2 Linecode=1P_OH_AL_4/0_Zuzara_2

New Line.l(r:p1rdm6025-p1rdt2980lv) Units=km Length=0.00647978 bus1=p1rdt2980lv.1.2 bus2=p1rdm6025.1.2 switch=n enabled=y phases=2 Linecode=1P_OH_AL_2/0_Rucina_2

New Line.l(r:p1rdm6026-p1rlv6003) Units=km Length=0.0186696 bus1=p1rdm6026.1.2 bus2=p1rlv6003.1.2 switch=n enabled=y phases=2 Linecode=1P_OH_AL_2/0_Rucina_2

New Line.l(r:p1rdm6026-p1rlv6007) Units=km Length=0.0130715 bus1=p1rdm6026.1.2 bus2=p1rlv6007.1.2 switch=n enabled=y phases=2 Linecode=1P_OH_AL_2/0_Rucina_2

New Line.l(r:p1rdm6026-p1rdt2981lv) Units=km Length=0.0097902 bus1=p1rdt2981lv.1.2 bus2=p1rdm6026.1.2 switch=n enabled=y phases=2 Linecode=1P_OH_AL_2/0_Rucina_2

New Line.l(r:p1rdm6028-p1rlv6710) Units=km Length=0.0886726 bus1=p1rdm6028.1.2 bus2=p1rlv6710.1.2 switch=n enabled=y phases=2 Linecode=1P_OH_AL_4/0_Zuzara_2

New Line.l(r:p1rdm6028-p1rdt2981lv) Units=km Length=0.0290177 bus1=p1rdt2981lv.1.2 bus2=p1rdm6028.1.2 switch=n enabled=y phases=2 Linecode=1P_OH_AL_4/0_Zuzara_2

New Line.l(r:p1rdm6029-p1rlv6004) Units=km Length=0.0072029 bus1=p1rdm6029.1.2 bus2=p1rlv6004.1.2 switch=n enabled=y phases=2 Linecode=1P_OH_AL_2/0_Rucina_2

New Line.l(r:p1rdm6029-p1rdt2982lv) Units=km Length=0.0106764 bus1=p1rdt2982lv.1.2 bus2=p1rdm6029.1.2 switch=n enabled=y phases=2 Linecode=1P_OH_AL_2/0_Rucina_2

New Line.l(r:p1rdm6030-p1rlv6005) Units=km Length=0.0108233 bus1=p1rdm6030.1.2 bus2=p1rlv6005.1.2 switch=n enabled=y phases=2 Linecode=1P_OH_AL_2/0_Rucina_2

New Line.l(r:p1rdm6030-p1rdt2982lv) Units=km Length=0.0105521 bus1=p1rdt2982lv.1.2 bus2=p1rdm6030.1.2 switch=n enabled=y phases=2 Linecode=1P_OH_AL_2/0_Rucina_2

New Line.l(r:p1rdm6033-p1rlv6010) Units=km Length=0.00622326 bus1=p1rdm6033.1.2 bus2=p1rlv6010.1.2 switch=n enabled=y phases=2 Linecode=1P_OH_AL_2/0_Rucina_2

New Line.l(r:p1rdm6032-p1rlv6009) Units=km Length=0.00712253 bus1=p1rdm6032.1.2 bus2=p1rlv6009.1.2 switch=n enabled=y phases=2 Linecode=1P_OH_AL_2/0_Rucina_2

New Line.l(r:p1rdm6032-p1rdm6033) Units=km Length=0.00636806 bus1=p1rdm6033.1.2 bus2=p1rdm6032.1.2 switch=n enabled=y phases=2 Linecode=1P_OH_AL_2/0_Rucina_2

New Line.l(r:p1rdm6033-p1rdt2983lv) Units=km Length=0.0243707 bus1=p1rdt2983lv.1.2 bus2=p1rdm6033.1.2 switch=n enabled=y phases=2 Linecode=1P_OH_AL_2/0_Rucina_2

New Line.l(r:p1rdm6035-p1rlv6851) Units=km Length=0.00164754 bus1=p1rdm6035.1.2 bus2=p1rlv6851.1.2 switch=n enabled=y phases=2 Linecode=1P_OH_AL_4_Periwinkle_2

New Line.l(r:p1rdm6031-p1rlv6006) Units=km Length=0.0205788 bus1=p1rdm6031.1.2 bus2=p1rlv6006.1.2 switch=n enabled=y phases=2 Linecode=1P_OH_AL_2/0_Rucina_2

New Line.l(r:p1rdm6031-p1rlv6011) Units=km Length=0.0189992 bus1=p1rdm6031.1.2 bus2=p1rlv6011.1.2 switch=n enabled=y phases=2 Linecode=1P_OH_AL_2/0_Rucina_2

New Line.l(r:p1rdm6031-p1rdm6035) Units=km Length=0.0211265 bus1=p1rdm6035.1.2 bus2=p1rdm6031.1.2 switch=n enabled=y phases=2 Linecode=1P_OH_AL_2/0_Rucina_2

New Line.l(r:p1rdm6035-p1rdt2983lv) Units=km Length=0.00597537 bus1=p1rdt2983lv.1.2 bus2=p1rdm6035.1.2 switch=n enabled=y phases=2 Linecode=1P_OH_AL_2/0_Rucina_2

New Line.l(r:p1rdt2984lv-p1rlv6008) Units=km Length=0.0183033 bus1=p1rdt2984lv.1.2 bus2=p1rlv6008.1.2 switch=n enabled=y phases=2 Linecode=1P_OH_AL_2/0_Rucina_2

New Line.l(r:p1rdm6289-p1rlv6266) Units=km Length=0.011008100000000002 bus1=p1rdm6289.1.2 bus2=p1rlv6266.1.2 switch=n enabled=y phases=2 Linecode=1P_OH_AL_2/0_Rucina_2

New Line.l(r:p1rdm6289-p1rdt3123lv) Units=km Length=0.0203469 bus1=p1rdt3123lv.1.2 bus2=p1rdm6289.1.2 switch=n enabled=y phases=2 Linecode=1P_OH_AL_2/0_Rucina_2

New Line.l(r:p1rdm6290-p1rlv6270) Units=km Length=0.00496009 bus1=p1rdm6290.1.2 bus2=p1rlv6270.1.2 switch=n enabled=y phases=2 Linecode=1P_OH_AL_2/0_Rucina_2

New Line.l(r:p1rdm6290-p1rdt3123lv) Units=km Length=0.0740759 bus1=p1rdt3123lv.1.2 bus2=p1rdm6290.1.2 switch=n enabled=y phases=2 Linecode=1P_OH_AL_4/0_Zuzara_2

New Line.l(r:p1rdm6291-p1rlv6267) Units=km Length=0.017305 bus1=p1rdm6291.1.2 bus2=p1rlv6267.1.2 switch=n enabled=y phases=2 Linecode=1P_OH_AL_2/0_Rucina_2

New Line.l(r:p1rdm6291-p1rdt3124lv) Units=km Length=0.0669568 bus1=p1rdt3124lv.1.2 bus2=p1rdm6291.1.2 switch=n enabled=y phases=2 Linecode=1P_OH_AL_4/0_Zuzara_2

New Line.l(r:p1rdm6292-p1rlv6330) Units=km Length=0.0164475 bus1=p1rdm6292.1.2 bus2=p1rlv6330.1.2 switch=n enabled=y phases=2 Linecode=1P_OH_AL_2/0_Rucina_2

New Line.l(r:p1rdm6292-p1rdt3124lv) Units=km Length=0.018274 bus1=p1rdt3124lv.1.2 bus2=p1rdm6292.1.2 switch=n enabled=y phases=2 Linecode=1P_OH_AL_2/0_Rucina_2

New Line.l(r:p1rdt3125lv-p1rlv6269) Units=km Length=0.013959100000000002 bus1=p1rdt3125lv.1.2 bus2=p1rlv6269.1.2 switch=n enabled=y phases=2 Linecode=1P_OH_AL_2/0_Rucina_2

New Line.l(r:p1rdm6295-p1rlv6276) Units=km Length=0.0121165 bus1=p1rdm6295.1.2 bus2=p1rlv6276.1.2 switch=n enabled=y phases=2 Linecode=1P_OH_AL_2/0_Rucina_2

New Line.l(r:p1rdm6298-p1rlv6334) Units=km Length=0.014569500000000003 bus1=p1rdm6298.1.2 bus2=p1rlv6334.1.2 switch=n enabled=y phases=2 Linecode=1P_OH_AL_2/0_Rucina_2

New Line.l(r:p1rdm6295-p1rdm6298) Units=km Length=0.0245258 bus1=p1rdm6295.1.2 bus2=p1rdm6298.1.2 switch=n enabled=y phases=2 Linecode=1P_OH_AL_2/0_Rucina_2

New Line.l(r:p1rdm6295-p1rdt3125lv) Units=km Length=0.0279773 bus1=p1rdt3125lv.1.2 bus2=p1rdm6295.1.2 switch=n enabled=y phases=2 Linecode=1P_OH_AL_4/0_Zuzara_2

New Line.l(r:p1rdm6296-p1rlv6332) Units=km Length=0.00855402 bus1=p1rdm6296.1.2 bus2=p1rlv6332.1.2 switch=n enabled=y phases=2 Linecode=1P_OH_AL_2/0_Rucina_2

New Line.l(r:p1rdm6293-p1rlv6268) Units=km Length=0.013138300000000002 bus1=p1rdm6293.1.2 bus2=p1rlv6268.1.2 switch=n enabled=y phases=2 Linecode=1P_OH_AL_2/0_Rucina_2

New Line.l(r:p1rdm6297-p1rlv6333) Units=km Length=0.00795512 bus1=p1rdm6297.1.2 bus2=p1rlv6333.1.2 switch=n enabled=y phases=2 Linecode=1P_OH_AL_2/0_Rucina_2

New Line.l(r:p1rdm6293-p1rdm6297) Units=km Length=0.023392500000000004 bus1=p1rdm6293.1.2 bus2=p1rdm6297.1.2 switch=n enabled=y phases=2 Linecode=1P_OH_AL_2/0_Rucina_2

New Line.l(r:p1rdm6293-p1rdm6296) Units=km Length=0.0133722 bus1=p1rdm6296.1.2 bus2=p1rdm6293.1.2 switch=n enabled=y phases=2 Linecode=1P_OH_AL_2/0_Rucina_2

New Line.l(r:p1rdm6296-p1rdt3125lv) Units=km Length=0.0133627 bus1=p1rdt3125lv.1.2 bus2=p1rdm6296.1.2 switch=n enabled=y phases=2 Linecode=1P_OH_AL_2/0_Rucina_2

New Line.l(r:p1rdt3126lv-p1rlv6272) Units=km Length=0.0051017 bus1=p1rdt3126lv.1.2 bus2=p1rlv6272.1.2 switch=n enabled=y phases=2 Linecode=1P_OH_AL_2/0_Rucina_2

New Line.l(r:p1rdm6299-p1rlv6271) Units=km Length=0.00986633 bus1=p1rdm6299.1.2 bus2=p1rlv6271.1.2 switch=n enabled=y phases=2 Linecode=1P_OH_AL_2/0_Rucina_2

New Line.l(r:p1rdm6299-p1rdt3126lv) Units=km Length=0.00526674 bus1=p1rdt3126lv.1.2 bus2=p1rdm6299.1.2 switch=n enabled=y phases=2 Linecode=1P_OH_AL_2/0_Rucina_2

New Line.l(r:p1rdm6301-p1rlv6274) Units=km Length=0.00751581 bus1=p1rdm6301.1.2 bus2=p1rlv6274.1.2 switch=n enabled=y phases=2 Linecode=1P_OH_AL_2/0_Rucina_2

New Line.l(r:p1rdm6301-p1rdt3126lv) Units=km Length=0.0129155 bus1=p1rdt3126lv.1.2 bus2=p1rdm6301.1.2 switch=n enabled=y phases=2 Linecode=1P_OH_AL_2/0_Rucina_2

New Line.l(r:p1rdt3127lv-p1rlv6273) Units=km Length=0.0224894 bus1=p1rdt3127lv.1.2 bus2=p1rlv6273.1.2 switch=n enabled=y phases=2 Linecode=1P_OH_AL_2/0_Rucina_2

New Line.l(r:p1rdm6303-p1rlv6275) Units=km Length=0.0021200000000000004 bus1=p1rdm6303.1.2 bus2=p1rlv6275.1.2 switch=n enabled=y phases=2 Linecode=1P_OH_AL_4_Periwinkle_2

New Line.l(r:p1rdm6303-p1rdt3128lv) Units=km Length=0.0196688 bus1=p1rdt3128lv.1.2 bus2=p1rdm6303.1.2 switch=n enabled=y phases=2 Linecode=1P_OH_AL_2/0_Rucina_2

New Line.l(r:p1rdm6304-p1rlv6278) Units=km Length=0.00788594 bus1=p1rdm6304.1.2 bus2=p1rlv6278.1.2 switch=n enabled=y phases=2 Linecode=1P_OH_AL_2/0_Rucina_2

New Line.l(r:p1rdm6304-p1rdt3128lv) Units=km Length=0.0119645 bus1=p1rdt3128lv.1.2 bus2=p1rdm6304.1.2 switch=n enabled=y phases=2 Linecode=1P_OH_AL_2/0_Rucina_2

New Line.l(r:p1rdt3129lv-p1rlv6277) Units=km Length=0.0151883 bus1=p1rdt3129lv.1.2 bus2=p1rlv6277.1.2 switch=n enabled=y phases=2 Linecode=1P_OH_AL_2/0_Rucina_2

New Line.l(r:p1rdm6306-p1rlv6335) Units=km Length=0.0143591 bus1=p1rdm6306.1.2 bus2=p1rlv6335.1.2 switch=n enabled=y phases=2 Linecode=1P_OH_AL_2/0_Rucina_2

New Line.l(r:p1rdm6306-p1rdt3129lv) Units=km Length=0.00678844 bus1=p1rdt3129lv.1.2 bus2=p1rdm6306.1.2 switch=n enabled=y phases=2 Linecode=1P_OH_AL_2/0_Rucina_2

New Line.l(r:p1rdm6307-p1rlv6279) Units=km Length=0.013011900000000002 bus1=p1rdm6307.1.2 bus2=p1rlv6279.1.2 switch=n enabled=y phases=2 Linecode=1P_OH_AL_2/0_Rucina_2

New Line.l(r:p1rdm6307-p1rdt3130lv) Units=km Length=0.053704 bus1=p1rdt3130lv.1.2 bus2=p1rdm6307.1.2 switch=n enabled=y phases=2 Linecode=1P_OH_AL_4/0_Zuzara_2

New Line.l(r:p1rdm6308-p1rlv6281) Units=km Length=0.0170345 bus1=p1rdm6308.1.2 bus2=p1rlv6281.1.2 switch=n enabled=y phases=2 Linecode=1P_OH_AL_2/0_Rucina_2

New Line.l(r:p1rdm6308-p1rlv6348) Units=km Length=0.015312600000000003 bus1=p1rdm6308.1.2 bus2=p1rlv6348.1.2 switch=n enabled=y phases=2 Linecode=1P_OH_AL_2/0_Rucina_2

New Line.l(r:p1rdm6309-p1rlv6282) Units=km Length=0.00972055 bus1=p1rdm6309.1.2 bus2=p1rlv6282.1.2 switch=n enabled=y phases=2 Linecode=1P_OH_AL_2/0_Rucina_2

New Line.l(r:p1rdm6309-p1rlv6349) Units=km Length=0.0126478 bus1=p1rdm6309.1.2 bus2=p1rlv6349.1.2 switch=n enabled=y phases=2 Linecode=1P_OH_AL_2/0_Rucina_2

New Line.l(r:p1rdm6308-p1rdm6309) Units=km Length=0.00821338 bus1=p1rdm6308.1.2 bus2=p1rdm6309.1.2 switch=n enabled=y phases=2 Linecode=1P_OH_AL_2/0_Rucina_2

New Line.l(r:p1rdm6308-p1rdt3130lv) Units=km Length=0.00969645 bus1=p1rdt3130lv.1.2 bus2=p1rdm6308.1.2 switch=n enabled=y phases=2 Linecode=1P_OH_AL_2/0_Rucina_2

New Line.l(r:p1rdt3131lv-p1rlv6280) Units=km Length=0.0129884 bus1=p1rdt3131lv.1.2 bus2=p1rlv6280.1.2 switch=n enabled=y phases=2 Linecode=1P_OH_AL_2/0_Rucina_2

New Line.l(r:p1rdt3132lv-p1rlv6283) Units=km Length=0.0177729 bus1=p1rdt3132lv.1.2 bus2=p1rlv6283.1.2 switch=n enabled=y phases=2 Linecode=1P_OH_AL_2/0_Rucina_2

New Line.l(r:p1rdm6314-p1rlv6284) Units=km Length=0.0196604 bus1=p1rdm6314.1.2 bus2=p1rlv6284.1.2 switch=n enabled=y phases=2 Linecode=1P_OH_AL_2/0_Rucina_2

New Line.l(r:p1rdm6314-p1rlv6794) Units=km Length=0.0114928 bus1=p1rdm6314.1.2 bus2=p1rlv6794.1.2 switch=n enabled=y phases=2 Linecode=1P_OH_AL_2/0_Rucina_2

New Line.l(r:p1rdm6314-p1rdt3133lv) Units=km Length=0.0210719 bus1=p1rdt3133lv.1.2 bus2=p1rdm6314.1.2 switch=n enabled=y phases=2 Linecode=1P_OH_AL_2/0_Rucina_2

New Line.l(r:p1rdm6315-p1rlv6793) Units=km Length=0.0204067 bus1=p1rdm6315.1.2 bus2=p1rlv6793.1.2 switch=n enabled=y phases=2 Linecode=1P_OH_AL_2/0_Rucina_2

New Line.l(r:p1rdm6315-p1rdt3133lv) Units=km Length=0.0397479 bus1=p1rdt3133lv.1.2 bus2=p1rdm6315.1.2 switch=n enabled=y phases=2 Linecode=1P_OH_AL_4/0_Zuzara_2

New Line.l(r:p1rdt3134lv-p1rlv6285) Units=km Length=0.015502500000000002 bus1=p1rdt3134lv.1.2 bus2=p1rlv6285.1.2 switch=n enabled=y phases=2 Linecode=1P_OH_AL_2/0_Rucina_2

New Line.l(r:p1rdt3134lv-p1rlv6297) Units=km Length=0.011918 bus1=p1rdt3134lv.1.2 bus2=p1rlv6297.1.2 switch=n enabled=y phases=2 Linecode=1P_OH_AL_2/0_Rucina_2

New Line.l(r:p1rdt3135lv-p1rlv6286) Units=km Length=0.00691836 bus1=p1rdt3135lv.1.2 bus2=p1rlv6286.1.2 switch=n enabled=y phases=2 Linecode=1P_OH_AL_2/0_Rucina_2

New Line.l(r:p1rdm6320-p1rlv6289) Units=km Length=0.0146337 bus1=p1rdm6320.1.2 bus2=p1rlv6289.1.2 switch=n enabled=y phases=2 Linecode=1P_OH_AL_2/0_Rucina_2

New Line.l(r:p1rdm6320-p1rdt3135lv) Units=km Length=0.014262200000000001 bus1=p1rdt3135lv.1.2 bus2=p1rdm6320.1.2 switch=n enabled=y phases=2 Linecode=1P_OH_AL_2/0_Rucina_2

New Line.l(r:p1rdt3136lv-p1rlv6792) Units=km Length=0.0170666 bus1=p1rdt3136lv.1.2 bus2=p1rlv6792.1.2 switch=n enabled=y phases=2 Linecode=1P_OH_AL_2/0_Rucina_2

New Line.l(r:p1rdm6321-p1rlv6287) Units=km Length=0.00808006 bus1=p1rdm6321.1.2 bus2=p1rlv6287.1.2 switch=n enabled=y phases=2 Linecode=1P_OH_AL_2/0_Rucina_2

New Line.l(r:p1rdm6321-p1rdt3136lv) Units=km Length=0.0626479 bus1=p1rdt3136lv.1.2 bus2=p1rdm6321.1.2 switch=n enabled=y phases=2 Linecode=1P_OH_AL_4/0_Zuzara_2

New Line.l(r:p1rdm6322-p1rlv6288) Units=km Length=0.0127627 bus1=p1rdm6322.1.2 bus2=p1rlv6288.1.2 switch=n enabled=y phases=2 Linecode=1P_OH_AL_2/0_Rucina_2

New Line.l(r:p1rdm6323-p1rlv6290) Units=km Length=0.0127705 bus1=p1rdm6323.1.2 bus2=p1rlv6290.1.2 switch=n enabled=y phases=2 Linecode=1P_OH_AL_2/0_Rucina_2

New Line.l(r:p1rdm6323-p1rlv6291) Units=km Length=0.0134434 bus1=p1rdm6323.1.2 bus2=p1rlv6291.1.2 switch=n enabled=y phases=2 Linecode=1P_OH_AL_2/0_Rucina_2

New Line.l(r:p1rdm6322-p1rdm6323) Units=km Length=0.0072062 bus1=p1rdm6322.1.2 bus2=p1rdm6323.1.2 switch=n enabled=y phases=2 Linecode=1P_OH_AL_2/0_Rucina_2

New Line.l(r:p1rdm6322-p1rdt3136lv) Units=km Length=0.0176703 bus1=p1rdt3136lv.1.2 bus2=p1rdm6322.1.2 switch=n enabled=y phases=2 Linecode=1P_OH_AL_2/0_Rucina_2

New Line.l(r:p1rdm6327-p1rlv8442) Units=km Length=0.0091169 bus1=p1rdm6327.1.2 bus2=p1rlv8442.1.2 switch=n enabled=y phases=2 Linecode=1P_UG_AL_1/0_Brenau_2

New Line.l(r:p1rdm6326-p1rlv6292) Units=km Length=0.0118651 bus1=p1rdm6326.1.2 bus2=p1rlv6292.1.2 switch=n enabled=y phases=2 Linecode=1P_UG_AL_1/0_Brenau_2

New Line.l(r:p1rdm6326-p1rdm6327) Units=km Length=0.00922172 bus1=p1rdm6327.1.2 bus2=p1rdm6326.1.2 switch=n enabled=y phases=2 Linecode=1P_UG_AL_1/0_Brenau_2

New Line.l(r:p1rdm6327-p1rdt3137lv) Units=km Length=0.0169658 bus1=p1rdt3137lv.1.2 bus2=p1rdm6327.1.2 switch=n enabled=y phases=2 Linecode=1P_UG_AL_1/0_Brenau_2

New Line.l(r:p1rdm6328-p1rlv8443) Units=km Length=0.00779739 bus1=p1rdm6328.1.2 bus2=p1rlv8443.1.2 switch=n enabled=y phases=2 Linecode=1P_UG_AL_1/0_Brenau_2

New Line.l(r:p1rdm6328-p1rdt3137lv) Units=km Length=0.0452194 bus1=p1rdt3137lv.1.2 bus2=p1rdm6328.1.2 switch=n enabled=y phases=2 Linecode=1P_UG_AL_1/0_Brenau_2

New Line.l(r:p1rdm6329-p1rlv6293) Units=km Length=0.0128271 bus1=p1rdm6329.1.2 bus2=p1rlv6293.1.2 switch=n enabled=y phases=2 Linecode=1P_OH_AL_2/0_Rucina_2

New Line.l(r:p1rdm6329-p1rdt3138lv) Units=km Length=0.0107461 bus1=p1rdt3138lv.1.2 bus2=p1rdm6329.1.2 switch=n enabled=y phases=2 Linecode=1P_OH_AL_2/0_Rucina_2

New Line.l(r:p1rdm6330-p1rlv6294) Units=km Length=0.0124249 bus1=p1rdm6330.1.2 bus2=p1rlv6294.1.2 switch=n enabled=y phases=2 Linecode=1P_OH_AL_2/0_Rucina_2

New Line.l(r:p1rdm6330-p1rdt3138lv) Units=km Length=0.0454773 bus1=p1rdt3138lv.1.2 bus2=p1rdm6330.1.2 switch=n enabled=y phases=2 Linecode=1P_OH_AL_4/0_Zuzara_2

New Line.l(r:p1rdt3139lv-p1rlv6295) Units=km Length=0.0115763 bus1=p1rdt3139lv.1.2 bus2=p1rlv6295.1.2 switch=n enabled=y phases=2 Linecode=1P_OH_AL_2/0_Rucina_2

New Line.l(r:p1rdm6332-p1rlv6299) Units=km Length=0.0234744 bus1=p1rdm6332.1.2 bus2=p1rlv6299.1.2 switch=n enabled=y phases=2 Linecode=1P_OH_AL_2/0_Rucina_2

New Line.l(r:p1rdm6332-p1rdt3139lv) Units=km Length=0.0131901 bus1=p1rdt3139lv.1.2 bus2=p1rdm6332.1.2 switch=n enabled=y phases=2 Linecode=1P_OH_AL_2/0_Rucina_2

New Line.l(r:p1rdt3140lv-p1rlv6296) Units=km Length=0.00808637 bus1=p1rdt3140lv.1.2 bus2=p1rlv6296.1.2 switch=n enabled=y phases=2 Linecode=1P_OH_AL_2/0_Rucina_2

New Line.l(r:p1rdt3141lv-p1rlv6351) Units=km Length=0.0119124 bus1=p1rdt3141lv.1.2 bus2=p1rlv6351.1.2 switch=n enabled=y phases=2 Linecode=1P_OH_AL_2/0_Rucina_2

New Line.l(r:p1rdm6334-p1rlv6298) Units=km Length=0.00986803 bus1=p1rdm6334.1.2 bus2=p1rlv6298.1.2 switch=n enabled=y phases=2 Linecode=1P_OH_AL_2/0_Rucina_2

New Line.l(r:p1rdm6334-p1rdt3141lv) Units=km Length=0.005605680000000001 bus1=p1rdt3141lv.1.2 bus2=p1rdm6334.1.2 switch=n enabled=y phases=2 Linecode=1P_OH_AL_2/0_Rucina_2

New Line.l(r:p1rdm6336-p1rlv6300) Units=km Length=0.017075600000000003 bus1=p1rdm6336.1.2 bus2=p1rlv6300.1.2 switch=n enabled=y phases=2 Linecode=1P_OH_AL_2/0_Rucina_2

New Line.l(r:p1rdm6336-p1rdt3142lv) Units=km Length=0.018892 bus1=p1rdt3142lv.1.2 bus2=p1rdm6336.1.2 switch=n enabled=y phases=2 Linecode=1P_OH_AL_2/0_Rucina_2

New Line.l(r:p1rdm6337-p1rlv6359) Units=km Length=0.0222486 bus1=p1rdm6337.1.2 bus2=p1rlv6359.1.2 switch=n enabled=y phases=2 Linecode=1P_OH_AL_2/0_Rucina_2

New Line.l(r:p1rdm6337-p1rdt3142lv) Units=km Length=0.00599053 bus1=p1rdt3142lv.1.2 bus2=p1rdm6337.1.2 switch=n enabled=y phases=2 Linecode=1P_OH_AL_2/0_Rucina_2

New Line.l(r:p1rdm6338-p1rlv6301) Units=km Length=0.0112441 bus1=p1rdm6338.1.2 bus2=p1rlv6301.1.2 switch=n enabled=y phases=2 Linecode=1P_OH_AL_2/0_Rucina_2

New Line.l(r:p1rdm6341-p1rlv6354) Units=km Length=0.00763663 bus1=p1rdm6341.1.2 bus2=p1rlv6354.1.2 switch=n enabled=y phases=2 Linecode=1P_OH_AL_2/0_Rucina_2

New Line.l(r:p1rdm6338-p1rdm6341) Units=km Length=0.0122559 bus1=p1rdm6338.1.2 bus2=p1rdm6341.1.2 switch=n enabled=y phases=2 Linecode=1P_OH_AL_2/0_Rucina_2

New Line.l(r:p1rdm6338-p1rdt3143lv) Units=km Length=0.010785500000000002 bus1=p1rdt3143lv.1.2 bus2=p1rdm6338.1.2 switch=n enabled=y phases=2 Linecode=1P_OH_AL_2/0_Rucina_2

New Line.l(r:p1rdm6339-p1rlv6345) Units=km Length=0.00988557 bus1=p1rdm6339.1.2 bus2=p1rlv6345.1.2 switch=n enabled=y phases=2 Linecode=1P_OH_AL_2/0_Rucina_2

New Line.l(r:p1rdm6339-p1rdt3143lv) Units=km Length=0.0384575 bus1=p1rdt3143lv.1.2 bus2=p1rdm6339.1.2 switch=n enabled=y phases=2 Linecode=1P_OH_AL_4/0_Zuzara_2

New Line.l(r:p1rdm6340-p1rlv6353) Units=km Length=0.0149766 bus1=p1rdm6340.1.2 bus2=p1rlv6353.1.2 switch=n enabled=y phases=2 Linecode=1P_OH_AL_2/0_Rucina_2

New Line.l(r:p1rdm6340-p1rdt3143lv) Units=km Length=0.0333312 bus1=p1rdt3143lv.1.2 bus2=p1rdm6340.1.2 switch=n enabled=y phases=2 Linecode=1P_OH_AL_4/0_Zuzara_2

New Line.l(r:p1rdm6344-p1rlv6304) Units=km Length=0.00719774 bus1=p1rdm6344.1.2 bus2=p1rlv6304.1.2 switch=n enabled=y phases=2 Linecode=1P_OH_AL_2/0_Rucina_2

New Line.l(r:p1rdm6344-p1rlv6357) Units=km Length=0.008841570000000002 bus1=p1rdm6344.1.2 bus2=p1rlv6357.1.2 switch=n enabled=y phases=2 Linecode=1P_OH_AL_2/0_Rucina_2

New Line.l(r:p1rdm6342-p1rlv6302) Units=km Length=0.017484800000000005 bus1=p1rdm6342.1.2 bus2=p1rlv6302.1.2 switch=n enabled=y phases=2 Linecode=1P_OH_AL_2/0_Rucina_2

New Line.l(r:p1rdm6342-p1rlv6303) Units=km Length=0.010053800000000002 bus1=p1rdm6342.1.2 bus2=p1rlv6303.1.2 switch=n enabled=y phases=2 Linecode=1P_OH_AL_2/0_Rucina_2

New Line.l(r:p1rdm6342-p1rdm6344) Units=km Length=0.0170189 bus1=p1rdm6344.1.2 bus2=p1rdm6342.1.2 switch=n enabled=y phases=2 Linecode=1P_OH_AL_2/0_Rucina_2

New Line.l(r:p1rdm6344-p1rdt3144lv) Units=km Length=0.0170096 bus1=p1rdt3144lv.1.2 bus2=p1rdm6344.1.2 switch=n enabled=y phases=2 Linecode=1P_OH_AL_2/0_Rucina_2

New Line.l(r:p1rdm6345-p1rlv6355) Units=km Length=0.0118409 bus1=p1rdm6345.1.2 bus2=p1rlv6355.1.2 switch=n enabled=y phases=2 Linecode=1P_OH_AL_2/0_Rucina_2

New Line.l(r:p1rdm6345-p1rlv6356) Units=km Length=0.020314000000000002 bus1=p1rdm6345.1.2 bus2=p1rlv6356.1.2 switch=n enabled=y phases=2 Linecode=1P_OH_AL_2/0_Rucina_2

New Line.l(r:p1rdm6345-p1rdt3144lv) Units=km Length=0.0283395 bus1=p1rdt3144lv.1.2 bus2=p1rdm6345.1.2 switch=n enabled=y phases=2 Linecode=1P_OH_AL_4/0_Zuzara_2

New Line.l(r:p1rdt3145lv-p1rlv6367) Units=km Length=0.00923379 bus1=p1rdt3145lv.1.2 bus2=p1rlv6367.1.2 switch=n enabled=y phases=2 Linecode=1P_OH_AL_2/0_Rucina_2

New Line.l(r:p1rdm6348-p1rlv6305) Units=km Length=0.0162135 bus1=p1rdm6348.1.2 bus2=p1rlv6305.1.2 switch=n enabled=y phases=2 Linecode=1P_OH_AL_2/0_Rucina_2

New Line.l(r:p1rdm6348-p1rdt3145lv) Units=km Length=0.0128165 bus1=p1rdt3145lv.1.2 bus2=p1rdm6348.1.2 switch=n enabled=y phases=2 Linecode=1P_OH_AL_2/0_Rucina_2

New Line.l(r:p1rdm6350-p1rlv6306) Units=km Length=0.00785566 bus1=p1rdm6350.1.2 bus2=p1rlv6306.1.2 switch=n enabled=y phases=2 Linecode=1P_OH_AL_2/0_Rucina_2

New Line.l(r:p1rdm6350-p1rdt3146lv) Units=km Length=0.00638882 bus1=p1rdt3146lv.1.2 bus2=p1rdm6350.1.2 switch=n enabled=y phases=2 Linecode=1P_OH_AL_2/0_Rucina_2

New Line.l(r:p1rdm6351-p1rlv6307) Units=km Length=0.0115839 bus1=p1rdm6351.1.2 bus2=p1rlv6307.1.2 switch=n enabled=y phases=2 Linecode=1P_OH_AL_2/0_Rucina_2

New Line.l(r:p1rdm6351-p1rdt3146lv) Units=km Length=0.0156013 bus1=p1rdt3146lv.1.2 bus2=p1rdm6351.1.2 switch=n enabled=y phases=2 Linecode=1P_OH_AL_2/0_Rucina_2

New Line.l(r:p1rdt3147lv-p1rlv6365) Units=km Length=0.016654 bus1=p1rdt3147lv.1.2 bus2=p1rlv6365.1.2 switch=n enabled=y phases=2 Linecode=1P_OH_AL_2/0_Rucina_2

New Line.l(r:p1rdm6352-p1rlv6308) Units=km Length=0.0253199 bus1=p1rdm6352.1.2 bus2=p1rlv6308.1.2 switch=n enabled=y phases=2 Linecode=1P_OH_AL_2/0_Rucina_2

New Line.l(r:p1rdm6357-p1rlv6366) Units=km Length=0.0119606 bus1=p1rdm6357.1.2 bus2=p1rlv6366.1.2 switch=n enabled=y phases=2 Linecode=1P_OH_AL_2/0_Rucina_2

New Line.l(r:p1rdm6352-p1rdm6357) Units=km Length=0.054336100000000005 bus1=p1rdm6352.1.2 bus2=p1rdm6357.1.2 switch=n enabled=y phases=2 Linecode=1P_OH_AL_4/0_Zuzara_2

New Line.l(r:p1rdm6352-p1rdt3147lv) Units=km Length=0.0128715 bus1=p1rdt3147lv.1.2 bus2=p1rdm6352.1.2 switch=n enabled=y phases=2 Linecode=1P_OH_AL_2/0_Rucina_2

New Line.l(r:p1rdm6353-p1rlv6309) Units=km Length=0.009661760000000002 bus1=p1rdm6353.1.2 bus2=p1rlv6309.1.2 switch=n enabled=y phases=2 Linecode=1P_OH_AL_2/0_Rucina_2

New Line.l(r:p1rdm6354-p1rlv6310) Units=km Length=0.0171809 bus1=p1rdm6354.1.2 bus2=p1rlv6310.1.2 switch=n enabled=y phases=2 Linecode=1P_OH_AL_2/0_Rucina_2

New Line.l(r:p1rdm6355-p1rlv6364) Units=km Length=0.0110718 bus1=p1rdm6355.1.2 bus2=p1rlv6364.1.2 switch=n enabled=y phases=2 Linecode=1P_OH_AL_2/0_Rucina_2

New Line.l(r:p1rdm6354-p1rdm6355) Units=km Length=0.0689585 bus1=p1rdm6354.1.2 bus2=p1rdm6355.1.2 switch=n enabled=y phases=2 Linecode=1P_OH_AL_4/0_Zuzara_2

New Line.l(r:p1rdm6353-p1rdm6354) Units=km Length=0.0158354 bus1=p1rdm6353.1.2 bus2=p1rdm6354.1.2 switch=n enabled=y phases=2 Linecode=1P_OH_AL_2/0_Rucina_2

New Line.l(r:p1rdm6353-p1rdt3147lv) Units=km Length=0.0128696 bus1=p1rdt3147lv.1.2 bus2=p1rdm6353.1.2 switch=n enabled=y phases=2 Linecode=1P_OH_AL_2/0_Rucina_2

New Line.l(r:p1rdt3148lv-p1rlv6312) Units=km Length=0.0106257 bus1=p1rdt3148lv.1.2 bus2=p1rlv6312.1.2 switch=n enabled=y phases=2 Linecode=1P_OH_AL_2/0_Rucina_2

New Line.l(r:p1rdm6358-p1rlv6311) Units=km Length=0.00989232 bus1=p1rdm6358.1.2 bus2=p1rlv6311.1.2 switch=n enabled=y phases=2 Linecode=1P_OH_AL_2/0_Rucina_2

New Line.l(r:p1rdm6358-p1rdt3148lv) Units=km Length=0.0504735 bus1=p1rdt3148lv.1.2 bus2=p1rdm6358.1.2 switch=n enabled=y phases=2 Linecode=1P_OH_AL_4/0_Zuzara_2

New Line.l(r:p1rdm6360-p1rlv6313) Units=km Length=0.0109903 bus1=p1rdm6360.1.2 bus2=p1rlv6313.1.2 switch=n enabled=y phases=2 Linecode=1P_OH_AL_2/0_Rucina_2

New Line.l(r:p1rdm6360-p1rlv6314) Units=km Length=0.0240556 bus1=p1rdm6360.1.2 bus2=p1rlv6314.1.2 switch=n enabled=y phases=2 Linecode=1P_OH_AL_2/0_Rucina_2

New Line.l(r:p1rdm6362-p1rlv6315) Units=km Length=0.0133423 bus1=p1rdm6362.1.2 bus2=p1rlv6315.1.2 switch=n enabled=y phases=2 Linecode=1P_OH_AL_2/0_Rucina_2

New Line.l(r:p1rdm6360-p1rdm6362) Units=km Length=0.0254382 bus1=p1rdm6360.1.2 bus2=p1rdm6362.1.2 switch=n enabled=y phases=2 Linecode=1P_OH_AL_2/0_Rucina_2

New Line.l(r:p1rdm6360-p1rdt3148lv) Units=km Length=0.015501 bus1=p1rdt3148lv.1.2 bus2=p1rdm6360.1.2 switch=n enabled=y phases=2 Linecode=1P_OH_AL_2/0_Rucina_2

New Line.l(r:p1rdm6363-p1rlv6316) Units=km Length=0.0109268 bus1=p1rdm6363.1.2 bus2=p1rlv6316.1.2 switch=n enabled=y phases=2 Linecode=1P_OH_AL_2/0_Rucina_2

New Line.l(r:p1rdm6363-p1rlv6324) Units=km Length=0.015192300000000002 bus1=p1rdm6363.1.2 bus2=p1rlv6324.1.2 switch=n enabled=y phases=2 Linecode=1P_OH_AL_2/0_Rucina_2

New Line.l(r:p1rdm6363-p1rdt3149lv) Units=km Length=0.019263 bus1=p1rdt3149lv.1.2 bus2=p1rdm6363.1.2 switch=n enabled=y phases=2 Linecode=1P_OH_AL_2/0_Rucina_2

New Line.l(r:p1rdm6364-p1rlv6317) Units=km Length=0.0146399 bus1=p1rdm6364.1.2 bus2=p1rlv6317.1.2 switch=n enabled=y phases=2 Linecode=1P_OH_AL_2/0_Rucina_2

New Line.l(r:p1rdm6364-p1rdt3149lv) Units=km Length=0.0165714 bus1=p1rdt3149lv.1.2 bus2=p1rdm6364.1.2 switch=n enabled=y phases=2 Linecode=1P_OH_AL_2/0_Rucina_2

New Line.l(r:p1rdt3150lv-p1rlv6321) Units=km Length=0.0100483 bus1=p1rdt3150lv.1.2 bus2=p1rlv6321.1.2 switch=n enabled=y phases=2 Linecode=1P_OH_AL_2/0_Rucina_2

New Line.l(r:p1rdm6369-p1rlv6322) Units=km Length=0.0259127 bus1=p1rdm6369.1.2 bus2=p1rlv6322.1.2 switch=n enabled=y phases=2 Linecode=1P_OH_AL_2/0_Rucina_2

New Line.l(r:p1rdm6367-p1rlv6319) Units=km Length=0.00902584 bus1=p1rdm6367.1.2 bus2=p1rlv6319.1.2 switch=n enabled=y phases=2 Linecode=1P_OH_AL_2/0_Rucina_2

New Line.l(r:p1rdm6366-p1rlv6318) Units=km Length=0.0131826 bus1=p1rdm6366.1.2 bus2=p1rlv6318.1.2 switch=n enabled=y phases=2 Linecode=1P_OH_AL_2/0_Rucina_2

New Line.l(r:p1rdm6370-p1rlv6323) Units=km Length=0.0257847 bus1=p1rdm6370.1.2 bus2=p1rlv6323.1.2 switch=n enabled=y phases=2 Linecode=1P_OH_AL_2/0_Rucina_2

New Line.l(r:p1rdm6366-p1rdm6370) Units=km Length=0.03913730000000001 bus1=p1rdm6366.1.2 bus2=p1rdm6370.1.2 switch=n enabled=y phases=2 Linecode=1P_OH_AL_4/0_Zuzara_2

New Line.l(r:p1rdm6366-p1rdm6367) Units=km Length=0.0102111 bus1=p1rdm6367.1.2 bus2=p1rdm6366.1.2 switch=n enabled=y phases=2 Linecode=1P_OH_AL_2/0_Rucina_2

New Line.l(r:p1rdm6367-p1rdm6369) Units=km Length=0.0102073 bus1=p1rdm6369.1.2 bus2=p1rdm6367.1.2 switch=n enabled=y phases=2 Linecode=1P_OH_AL_2/0_Rucina_2

New Line.l(r:p1rdm6369-p1rdt3150lv) Units=km Length=0.0198893 bus1=p1rdt3150lv.1.2 bus2=p1rdm6369.1.2 switch=n enabled=y phases=2 Linecode=1P_OH_AL_2/0_Rucina_2

New Line.l(r:p1rdm6372-p1rlv6361) Units=km Length=0.00962233 bus1=p1rdm6372.1.2 bus2=p1rlv6361.1.2 switch=n enabled=y phases=2 Linecode=1P_OH_AL_2/0_Rucina_2

New Line.l(r:p1rdm6371-p1rlv6326) Units=km Length=0.0140139 bus1=p1rdm6371.1.2 bus2=p1rlv6326.1.2 switch=n enabled=y phases=2 Linecode=1P_OH_AL_2/0_Rucina_2

New Line.l(r:p1rdm6371-p1rdm6372) Units=km Length=0.0660051 bus1=p1rdm6372.1.2 bus2=p1rdm6371.1.2 switch=n enabled=y phases=2 Linecode=1P_OH_AL_4/0_Zuzara_2

New Line.l(r:p1rdm6372-p1rdt3150lv) Units=km Length=0.0392082 bus1=p1rdt3150lv.1.2 bus2=p1rdm6372.1.2 switch=n enabled=y phases=2 Linecode=1P_OH_AL_4/0_Zuzara_2

New Line.l(r:p1rdm6374-p1rlv6325) Units=km Length=0.0146792 bus1=p1rdm6374.1.2 bus2=p1rlv6325.1.2 switch=n enabled=y phases=2 Linecode=1P_OH_AL_2/0_Rucina_2

New Line.l(r:p1rdm6374-p1rdt3151lv) Units=km Length=0.040328 bus1=p1rdt3151lv.1.2 bus2=p1rdm6374.1.2 switch=n enabled=y phases=2 Linecode=1P_OH_AL_4/0_Zuzara_2

New Line.l(r:p1rdm6375-p1rlv6360) Units=km Length=0.016944900000000002 bus1=p1rdm6375.1.2 bus2=p1rlv6360.1.2 switch=n enabled=y phases=2 Linecode=1P_OH_AL_2/0_Rucina_2

New Line.l(r:p1rdm6373-p1rlv6320) Units=km Length=0.0234132 bus1=p1rdm6373.1.2 bus2=p1rlv6320.1.2 switch=n enabled=y phases=2 Linecode=1P_OH_AL_2/0_Rucina_2

New Line.l(r:p1rdm6373-p1rdm6375) Units=km Length=0.0314836 bus1=p1rdm6375.1.2 bus2=p1rdm6373.1.2 switch=n enabled=y phases=2 Linecode=1P_OH_AL_4/0_Zuzara_2

...